src/Test_Network/C10_Lines-Geometry.dss
new line.C10_hvmv_sub_connector  bus1=C10__hvmv_sub_lsb       bus2=C10_hvmv_sub_48332      length=0.001       units=km r1=0.001                                        r0=0.001 x1=0.01      x0=0.01      c1=0     c0=0           
new line.C10_ln5502549-1         bus1=C10_m1009763.2          bus2=C10_l2673322.2          length=0.032175613 units=km geometry=1ph-x4_acsrx4_acsr                
new line.C10_ln6259988-1         bus1=C10_m1069148.3          bus2=C10_l2673309.3          length=0.10723408  units=km geometry=1ph-xx4_acsr4_acsr                
new line.C10_ln6077796-1         bus1=C10_m1069588.2          bus2=C10_l2804270.2          length=0.011446341 units=km geometry=1ph-x4_acsrx4_acsr                
new line.C10_ln5835135-2         bus1=C10_m3036164.2          bus2=C10_l2935553.2          length=0.047751634 units=km geometry=1ph-x4_acsrx4_acsr                
new line.C10_ln5896826-1         bus1=C10_m1209749.2          bus2=C10_l2748840.2          length=0.20318135  units=km geometry=1ph-x2_acsrx2_acsr                
new line.C10_ln5714038-1         bus1=C10_m1108264.2          bus2=C10_m1108263.2          length=0.099994301 units=km geometry=1ph-x4_acsrx4_wpal                
new line.C10_ln5653457-1         bus1=C10_l3085398            bus2=C10_m1026891            length=0.085708298 units=km geometry=3ph_h-4_acsr4_acsr4_acsr4_acsr          
new line.C10_ln5835173-1         bus1=C10_l3216367            bus2=C10_m1069468            length=0.04134682  units=km geometry=3ph_h-2/0_acsr2/0_acsr2/0_acsr2_acsr    
new line.C10_ln6321415-1         bus1=C10_m1142800.2          bus2=C10_m1142799.2          length=0.093302869 units=km geometry=1ph-x2_acsrx2_acsr                
new line.C10_ln5565092-1         bus1=C10_m1047592.3          bus2=C10_p827512.3           length=0.003656151 units=km geometry=1ph-xx4_acsr4_acsr                
new line.C10_ln6073648-1         bus1=C10_m1047339.1          bus2=C10_p895104.1           length=0.007739728 units=km geometry=1ph-4_wpalxx2_wpal                
new line.C10_ln5774457-1         bus1=C10_m1026915            bus2=C10_m1026920            length=0.04084655  units=km geometry=3ph_h-4_acsr2_acsr2_acsr4_wpal          
new line.C10_ln5534966-3         bus1=C10_n1138596.1          bus2=C10_l3254207.1          length=0.024491351 units=km geometry=1ph-4_acsrxx4_acsr                
new line.C10_ln5859996-1         bus1=C10_m1069464.2          bus2=C10_p873787.2           length=0.006235546 units=km geometry=1ph-x2_acsrx2_acsr                
new line.C10_ln6138610-2         bus1=C10_n1144665            bus2=C10_m1047515            length=0.02738852  units=km geometry=3ph_h-4_acsr4_acsr4_acsr4_wpal          
new line.C10_ln6258435-3         bus1=C10_n1137002.1          bus2=C10_m1047707.1          length=0.092480965 units=km geometry=1ph-2_acsrxx2_acsr                
new line.C10_ln5804790-1         bus1=C10_l2729406.3          bus2=C10_l2897768.3          length=0.19477261  units=km geometry=1ph-xx4_acsr4_acsr                
new line.C10_ln6900591-14        bus1=C10_l3649301.1          bus2=C10_l3649302.1          length=0.063060497 units=km geometry=1ph-2_acsrxx2_acsr                
new line.C10_ln6409873-1         bus1=C10_l2970842.2          bus2=C10_m1089113.2          length=0.071877523 units=km geometry=1ph-x4_acsrx4_acsr                
new line.C10_ln6014135-1         bus1=C10_m1047312.1          bus2=C10_p893163.1           length=0.004144648 units=km geometry=1ph-4_wpalxx4_acsr                
new line.C10_ln6077784-1         bus1=C10_l2822871            bus2=C10_m1026872            length=0.060144485 units=km geometry=3ph_h-2/0_acsr2/0_acsr2/0_acsr2_acsr    
new line.C10_ln5744338-1         bus1=C10_m1026312.2          bus2=C10_l2973163.2          length=0.053487035 units=km geometry=1ph-x4_acsrx4_wpal                
new line.C10_ln6991381-4         bus1=C10_l3728038.1          bus2=C10_l3728039.1          length=0.079108815 units=km geometry=1ph-2_acsrxx2_acsr                
new line.C10_ln5774480-1         bus1=C10_m1069567.2          bus2=C10_m1069582.2          length=0.1529554   units=km geometry=1ph-x4_acsrx4_acsr                
new line.C10_ln5986938-3         bus1=C10_n1140830.1          bus2=C10_l3216351.1          length=0.00873965  units=km geometry=1ph-4_acsrxx4_acsr                
new line.C10_ln5894230-1         bus1=C10_l2952007.3          bus2=C10_l2861158.3          length=0.12654648  units=km geometry=1ph-xx4_acsr4_acsr                
new line.C10_ln5683858-3         bus1=C10_n1140827            bus2=C10_m1026726            length=0.017268995 units=km geometry=3ph_h-4_acsr4_acsr4_acsr4_acsr          
new line.C10_ln5920279-5         bus1=C10_l2730106            bus2=C10_n1142099            length=0.022369032 units=km geometry=3ph_h-397_acsr397_acsr397_acsr2/0_acsr  
new line.C10_ln6439600-1         bus1=C10_m1026658.1          bus2=C10_l3172805.1          length=0.10668036  units=km geometry=1ph-2_acsrxx2_acsr                
new line.C10_ln5589097-1         bus1=C10_p895112.1           bus2=C10_l3048962.1          length=0.025604159 units=km geometry=1ph-2_acsrxx4_acsr                
new line.C10_ln5651975-1         bus1=C10_l2991914            bus2=C10_m1047503            length=0.035650057 units=km geometry=3ph_h-4_acsr4_acsr4_acsr4_acsr          
new line.C10_ln5865236-1         bus1=C10_m1047751.1          bus2=C10_l2973154.1          length=0.00930772  units=km geometry=1ph-4_acsrxx4_acsr                
new line.C10_ln5593232-1         bus1=C10_l3010565.3          bus2=C10_l2897775.3          length=0.14082596  units=km geometry=1ph-xx2_acsr2_acsr                
new line.C10_ln5740283-1         bus1=C10_m1125955.3          bus2=C10_m1125957.3          length=0.00682612  units=km geometry=1ph-xx4_wpal4_wpal                
new line.C10_ln6106559-1         bus1=C10_m1069640.2          bus2=C10_l2804269.2          length=0.10114503  units=km geometry=1ph-x4_acsrx4_acsr                
new line.C10_ln5714056-3         bus1=C10_m1026702            bus2=C10_n1139551            length=0.12873466  units=km geometry=3ph_h-4_acsr4_acsr4_acsr4_wpal          
new line.C10_ln5985355-3         bus1=C10_n1136355.2          bus2=C10_l2783231.2          length=0.072454801 units=km geometry=1ph-x4_wpalx4_wpal                
new line.C10_ln5531956-1         bus1=C10_l2748143.1          bus2=C10_l3251854.1          length=0.067056078 units=km geometry=1ph-2_acsrxx2_acsr                
new line.C10_ln5650048-1         bus1=C10_m1069610.2          bus2=C10_m1069600.2          length=0.060959705 units=km geometry=1ph-x2_acsrx2_acsr                
new line.C10_ln6290203-1         bus1=C10_m1069424            bus2=C10_l2935549            length=0.088596305 units=km geometry=3ph_h-2/0_acsr2/0_acsr2/0_acsr2_acsr    
new line.C10_ln6134414-1         bus1=C10_p895089.3           bus2=C10_l3235242.3          length=0.060507038 units=km geometry=1ph-xx2_acsr2_acsr                
new line.C10_ln6259998-2         bus1=C10_m1026795.3          bus2=C10_n1140522.3          length=0.013557509 units=km geometry=1ph-xx2_acsr2_acsr                
new line.C10_ln6078767-1         bus1=C10_l3030199            bus2=C10_m1125934            length=0.029294768 units=km geometry=3ph_h-397_acsr397_acsr397_acsr2/0_acsr  
new line.C10_ln6017300-1         bus1=C10_m1069189.3          bus2=C10_l2860487.3          length=0.086987129 units=km geometry=1ph-xx4_wpal4_wpal                
new line.C10_ln8979257-2         bus1=C10_221-312488          bus2=C10_m1089183            length=0.013516796 units=km linecode=3p_1/0_axnj_db                          
new line.C10_ln81048109-1        bus1=C10_m1108464.2          bus2=C10_l3102286.2          length=0.10745557  units=km linecode=1p_1/0_axnj_db                          
new line.C10_293471              bus1=C10_f739845             bus2=C10_293471              length=0.03048     units=km geometry=3ph_h-4_acsr4_acsr4_acsr4_acsr          
new line.C10_ln5534965-2         bus1=C10_p827499.1           bus2=C10_n1139254.1          length=0.006376053 units=km geometry=1ph-4_acsrxx4_acsr                
new line.C10_ln5655683-1         bus1=C10_m1026657.1          bus2=C10_m1026656.1          length=0.006010467 units=km geometry=1ph-4_acsrxx4_acsr                
new line.C10_ln5686247-1         bus1=C10_m1108299.2          bus2=C10_m1108300.2          length=0.006796901 units=km geometry=1ph-x4_acsrx4_acsr                
new line.C10_ln6048642-1         bus1=C10_l3198355.2          bus2=C10_l2805037.2          length=0.11081571  units=km geometry=1ph-x4_wpalx4_wpal                
new line.C10_ln5928544-3         bus1=C10_n1137994.3          bus2=C10_m1069484.3          length=0.05637094  units=km geometry=1ph-xx4_wpal4_acsr                
new line.C10_ln6108172-1         bus1=C10_l2860504.1          bus2=C10_l2860493.1          length=0.20838125  units=km geometry=1ph-2_acsrxx2_acsr                
new line.C10_ln5532754-1         bus1=C10_m1026783            bus2=C10_m1026780            length=0.017916335 units=km geometry=3ph_h-4_acsr4_acsr4_acsr4_wpal          
new line.C10_ln5591834-1         bus1=C10_p895111.3           bus2=C10_l2895496.3          length=0.069855343 units=km geometry=1ph-xx2_acsr2_acsr                
new line.C10_ln6347196-2         bus1=C10_n1140819            bus2=C10_m1026700            length=0.026930613 units=km geometry=3ph_h-4_acsr4_acsr4_acsr4_wpal          
new line.C10_ln5532741-1         bus1=C10_m1089173.3          bus2=C10_l2935551.3          length=0.060857652 units=km geometry=1ph-xx4_wpal4_wpal                
new line.C10_ln5804803-1         bus1=C10_m1026344.1          bus2=C10_m1026364.1          length=0.29464985  units=km geometry=1ph-2_acsrxx2_acsr                
new line.C10_ln6169248-1         bus1=C10_l2879070            bus2=C10_l3216345            length=0.089300859 units=km geometry=3ph_h-2/0_acsr2/0_acsr2/0_acsr2_acsr    
new line.C10_ln5532786-2         bus1=C10_m1069428.2          bus2=C10_n1139257.2          length=0.016476581 units=km geometry=1ph-x2_acsrx1/0_tpx               
new line.C10_ln5744339-1         bus1=C10_l2991919.1          bus2=C10_m1026361.1          length=0.085291161 units=km geometry=1ph-4_wpalxx4_acsr                
new line.C10_ln5531255-3         bus1=C10_n1147857.1          bus2=C10_m1009742.1          length=0.054752983 units=km geometry=1ph-4_acsrxx4_acsr                
new line.C10_ln5926308-2         bus1=C10_q14412              bus2=C10_m1047325            length=0.033944982 units=km geometry=3ph_h-4_acsr4_acsr4_acsr4_acsr          
new line.C10_ln5683856-3         bus1=C10_n1139263.1          bus2=C10_l3048227.1          length=0.025986896 units=km geometry=1ph-4_acsrxx4_acsr                
new line.C10_ln6171502-1         bus1=C10_p827506.1           bus2=C10_m1069469.1          length=0.007050168 units=km geometry=1ph-4_acsrxx4_acsr                
new line.C10_ln5593228-1         bus1=C10_m1027019.2          bus2=C10_l2785522.2          length=0.060390635 units=km geometry=1ph-x2_acsrx2_acsr                
new line.C10_cap_1a              bus1=C10_l2823592.1          bus2=C10_l2823592_cap.1      length=0.01        units=km r1=0.01        r0=0.01  x1=0.01      x0=0.01      c1=0     c0=0           
new line.C10_cap_1b              bus1=C10_l2823592.2          bus2=C10_l2823592_cap.2      length=0.01        units=km r1=0.01        r0=0.01  x1=0.01      x0=0.01      c1=0     c0=0           
new line.C10_cap_1c              bus1=C10_l2823592.3          bus2=C10_l2823592_cap.3      length=0.01        units=km r1=0.01        r0=0.01  x1=0.01      x0=0.01      c1=0     c0=0           
new line.C10_ln5513564-2         bus1=C10_l2823592_cap        bus2=C10_r20185              length=0.0451087   units=km geometry=3ph_h-397_acsr397_acsr397_acsr2/0_acsr  
new line.C10_ln6380800-1         bus1=C10_l3216338.2          bus2=C10_l2973146.2          length=0.058581136 units=km geometry=1ph-x2_acsrx2_acsr                
new line.C10_ln6199525-2         bus1=C10_m3037452.1          bus2=C10_l2973164.1          length=0.071451786 units=km geometry=1ph-4_acsrxx4_acsr                
new line.C10_ln5772710-2         bus1=C10_l3120376.1          bus2=C10_m1026925.1          length=0.089332548 units=km geometry=1ph-4_acsrxx4_wpal                
new line.C10_ln8961760-1         bus1=C10_m1047612.3          bus2=C10_p828360.3           length=0.005371644 units=km linecode=1p_1/0_axnj_db                          
new line.C10_ln6047556-1         bus1=C10_m1089195.3          bus2=C10_l3141393.3          length=0.11273397  units=km geometry=1ph-xx2_acsr2_acsr                
new line.C10_ln6138603-1         bus1=C10_m1026946.2          bus2=C10_m1026940.2          length=0.12856984  units=km geometry=1ph-x4_acsrx4_acsr                
new line.C10_ln6108139-1         bus1=C10_m1047471.2          bus2=C10_l3216349.2          length=0.0183997   units=km geometry=1ph-x2_acsrx2_acsr                
new line.C10_ln6388581-2         bus1=C10_m1047401.1          bus2=C10_l2748132.1          length=0.056056234 units=km geometry=1ph-4_acsrxx4_acsr                
new line.C10_ln5774460-1         bus1=C10_l3122820.1          bus2=C10_l3141398.1          length=0.059408725 units=km geometry=1ph-2_acsrxx2_acsr                
new line.C10_ln5624387-1         bus1=C10_m1108360.3          bus2=C10_l3048968.3          length=0.05497669  units=km geometry=1ph-xx4_acsr4_acsr                
new line.C10_ln6137087-1         bus1=C10_l2801950.3          bus2=C10_m1069224.3          length=0.032899004 units=km geometry=1ph-xx4_acsr1/0_tpx               
new line.C10_ln6077809-1         bus1=C10_l2766746.3          bus2=C10_m1027073.3          length=0.11047955  units=km geometry=1ph-xx2_acsr2_acsr                
new line.C10_ln6440079-1         bus1=C10_l2895496.3          bus2=C10_m1142873.3          length=0.050561264 units=km geometry=1ph-xx2_acsr2_acsr                
new line.C10_ln5804794-1         bus1=C10_m1069181.1          bus2=C10_l2973151.1          length=0.075432644 units=km geometry=1ph-4_acsrxx4_acsr                
new line.C10_ln5654484-1         bus1=C10_l3179682.3          bus2=C10_l2786274.3          length=0.027728997 units=km geometry=1ph-xx4_acsr4_acsr                
new line.C10_ln5774465-1         bus1=C10_l3066816.1          bus2=C10_m1026667.1          length=0.12146238  units=km geometry=1ph-2_acsrxx2_acsr                
new line.C10_ln5473349-1         bus1=C10_m1108529            bus2=C10_m1108532            length=0.024808926 units=km geometry=3ph_h-397_acsr397_acsr397_acsr2/0_acsr  
new line.C10_ln6169253-1         bus1=C10_l2766723.1          bus2=C10_l3122822.1          length=0.057158143 units=km geometry=1ph-4_acsrxx4_acsr                
new line.C10_ln6350536-1         bus1=C10_l2673312.1          bus2=C10_l3235247.1          length=0.16625327  units=km geometry=1ph-2_acsrxx2_acsr                
new line.C10_ln6048523-1         bus1=C10_m1166391.3          bus2=C10_l3254873.3          length=0.1061747   units=km geometry=1ph-xx4_wpal4_acsr                
new line.C10_ln5594152-1         bus1=C10_l2861157.3          bus2=C10_p901951.3           length=0.12134881  units=km geometry=1ph-xx2_acsr2_acsr                
new line.C10_ln5865248-1         bus1=C10_m1047346            bus2=C10_m1047345            length=0.043145742 units=km geometry=3ph_h-4_wpal4_wpal4_wpal4_acsr          
new line.C10_ln6046143-1         bus1=C10_l2989596.2          bus2=C10_l2822873.2          length=0.088615313 units=km geometry=1ph-x4_wpalx4_acsr                
new line.C10_ln5803287-1         bus1=C10_m1108328.3          bus2=C10_l2875754.3          length=0.021267162 units=km geometry=1ph-xx2_acsr2_acsr                
new line.C10_ln5589094-1         bus1=C10_l2786204.3          bus2=C10_m1209819.3          length=0.072043559 units=km geometry=1ph-xx4_acsr4_acsr                
new line.C10_ln5954983-1         bus1=C10_p901972.1           bus2=C10_m1009726.1          length=0.090083252 units=km geometry=1ph-4_wpalxx4_wpal                
new line.C10_ln5924696-2         bus1=C10_m1047702.1          bus2=C10_n1137001.1          length=0.042663027 units=km geometry=1ph-2_acsrxx2_acsr                
new line.C10_ln6506311-4         bus1=C10_l2767340            bus2=C10_m3037449            length=0.001937451 units=km geometry=3ph_h-4_wpal4_wpal4_wpal4_wpal          
new line.C10_ln5653493-1         bus1=C10_m1047457.2          bus2=C10_l2710546.2          length=0.040119548 units=km geometry=1ph-x2_acsrx2_acsr                
new line.C10_ln5684836-1         bus1=C10_l2674027            bus2=C10_l2692633            length=0.067881777 units=km geometry=3ph_h-397_acsr397_acsr397_acsr2/0_acsr  
new line.C10_ln5715016-3         bus1=C10_n1142108.1          bus2=C10_l2674051.1          length=0.073678618 units=km geometry=1ph-2_acsrxx2_acsr                
new line.C10_ln6138614-1         bus1=C10_m1069135            bus2=C10_r18242              length=0.070990263 units=km geometry=3ph_h-4_wpal4_wpal4_wpal4_wpal          
new line.C10_ln6077781-2         bus1=C10_m1047534            bus2=C10_n1136663            length=0.11473566  units=km geometry=3ph_h-2/0_acsr2/0_acsr2/0_acsr2_acsr    
new line.C10_ln5675121-1         bus1=C10_m1108508.3          bus2=C10_l3097861.3          length=0.091439774 units=km geometry=1ph-xx2_acsr2_acsr                
new line.C10_ln5773046-1         bus1=C10_m1069560.2          bus2=C10_m1069567.2          length=0.081428218 units=km geometry=1ph-x4_acsrx4_acsr                
new line.C10_ln6380809-2         bus1=C10_l2973153            bus2=C10_n1136998            length=0.010528536 units=km geometry=3ph_h-4_wpal4_wpal4_wpal4_wpal          
new line.C10_ln6018326-1         bus1=C10_l2898515.3          bus2=C10_m1166387.3          length=0.059605868 units=km geometry=1ph-xx4_acsr4_acsr                
new line.C10_ln5472356-1         bus1=C10_m1047442.2          bus2=C10_l3235250.2          length=0.064500287 units=km geometry=1ph-x4_wpalx4_wpal                
new line.C10_ln6139641-1         bus1=C10_m1142871            bus2=C10_m1142874            length=0.038152689 units=km geometry=3ph_h-397_acsr397_acsr397_acsr2/0_acsr  
new line.C10_ln6018341-1         bus1=C10_l2955081            bus2=C10_m1108315            length=0.094684869 units=km geometry=3ph_h-397_acsr397_acsr397_acsr2/0_acsr  
new line.C10_ln6017302-1         bus1=C10_l2973162            bus2=C10_m1026333            length=0.053150629 units=km geometry=3ph_h-4_wpal4_wpal4_wpal4_acsr          
new line.C10_ln6199505-1         bus1=C10_m1009832.2          bus2=C10_l2860479.2          length=0.036046786 units=km geometry=1ph-x4_acsrx4_acsr                
new line.C10_ln5682327-1         bus1=C10_m1026854.1          bus2=C10_p901894.1           length=0.005924616 units=km geometry=1ph-4_acsrxx4_acsr                
new line.C10_ln6290243-1         bus1=C10_m1026485.2          bus2=C10_m1026492.2          length=0.065907247 units=km geometry=1ph-x2_acsrx2_acsr                
new line.C10_x8223_48332_sw      bus1=C10_d6413567-3_int      bus2=C10_e182724             switch=y           r1=1     1                                               1        1            length=0.001   
new line.C10_ln6413567-3         bus1=C10_n1139541            bus2=C10_d6413567-3_int      length=0.014966786 units=km geometry=3ph_h-4_acsr4_acsr4_acsr4_wpal          
new line.C10_ln5591731-3         bus1=C10_m4122658            bus2=C10_l2933135            length=0.001669181 units=km geometry=3ph_h-397_acsr397_acsr397_acsr2/0_acsr  
new line.C10_ln5653470-1         bus1=C10_m1026702            bus2=C10_l2729414            length=0.049898074 units=km geometry=3ph_h-2_acsr2_acsr2_acsr2_acsr          
new line.C10_ln6017316-1         bus1=C10_l2729430.2          bus2=C10_l2766742.2          length=0.10864125  units=km geometry=1ph-x4_acsrx4_acsr                
new line.C10_ln5926299-1         bus1=C10_m1026972.2          bus2=C10_l2860483.2          length=0.060677138 units=km geometry=1ph-x2_acsrx2_acsr                
new line.C10_ln5683831-1         bus1=C10_l2860490            bus2=C10_l3104134            length=0.063357888 units=km geometry=3ph_h-4_acsr4_acsr4_acsr4_acsr          
new line.C10_ln6352700-1         bus1=C10_m1089144.1          bus2=C10_p827522.1           length=0.002591741 units=km geometry=1ph-2_acsrxx2_acsr                
new line.C10_ln6047570-1         bus1=C10_m1089118.1          bus2=C10_l3048208.1          length=0.045297024 units=km geometry=1ph-4_acsrxx4_wpal                
new line.C10_ln5624342-1         bus1=C10_m1108505            bus2=C10_l2955047            length=0.05456149  units=km geometry=3ph_h-397_acsr397_acsr397_acsr2/0_acsr  
new line.C10_ln6259992-1         bus1=C10_m1089148.1          bus2=C10_l2766721.1          length=0.048405189 units=km geometry=1ph-4_acsrxx1/0_tpx               
new line.C10_ln5841919-1         bus1=C10_m1026745.2          bus2=C10_l3029183.2          length=0.091016527 units=km geometry=1ph-x2_acsrx2_acsr                
new line.C10_ln6380811-1         bus1=C10_l2710512.2          bus2=C10_m1047828.2          length=0.14521686  units=km geometry=1ph-x4_acsrx4_acsr                
new line.C10_ln5683832-1         bus1=C10_m1047342.1          bus2=C10_l3197645.1          length=0.073698058 units=km geometry=1ph-2_acsrxx2_acsr                
new line.C10_ln6077778-1         bus1=C10_m1069192.1          bus2=C10_l3235253.1          length=0.081541574 units=km geometry=1ph-2_acsrxx2_acsr                
new line.C10_ln5561442-2         bus1=C10_l3214071            bus2=C10_m1125952            length=0.053927476 units=km geometry=3ph_h-397_acsr397_acsr397_acsr2/0_acsr  
new line.C10_ln6259983-1         bus1=C10_m1027101.2          bus2=C10_l2860480.2          length=0.16390608  units=km geometry=1ph-x2_acsrx2_acsr                
new line.C10_ln5865244-1         bus1=C10_l2710517.1          bus2=C10_m1026646.1          length=0.048809326 units=km geometry=1ph-4_acsrxx4_acsr                
new line.C10_ln6350555-1         bus1=C10_m1069662.2          bus2=C10_l2935547.2          length=0.061176171 units=km geometry=1ph-x2_acsrx2_acsr                
new line.C10_ln5714039-1         bus1=C10_m1026931.1          bus2=C10_l3216336.1          length=0.049186375 units=km geometry=1ph-4_acsrxx4_acsr                
new line.C10_ln5889821-1         bus1=C10_l3142049            bus2=C10_m1108493            length=0.084670171 units=km geometry=3ph_h-397_acsr397_acsr397_acsr2/0_acsr  
new line.C10_ln5804791-1         bus1=C10_m1069169            bus2=C10_l3010556            length=0.073355839 units=km geometry=3ph_h-4_acsr4_acsr4_acsr4_wpal          
new line.C10_ln5653486-1         bus1=C10_l2991933.3          bus2=C10_l3122837.3          length=0.083273252 units=km geometry=1ph-xx4_acsr4_acsr                
new line.C10_ln5926286-1         bus1=C10_l3216336.1          bus2=C10_l2691936.1          length=0.066949476 units=km geometry=1ph-4_acsrxx4_acsr                
new line.C10_ln6318859-1         bus1=C10_l2897772.1          bus2=C10_l3101814.1          length=0.056445275 units=km geometry=1ph-4_acsrxx4_acsr                
new line.C10_ln5926316-1         bus1=C10_l2766732.2          bus2=C10_m1026485.2          length=0.013733074 units=km geometry=1ph-x2_acsrx2_acsr                
new line.C10_ln5591703-1         bus1=C10_l2804269.2          bus2=C10_l2989564.2          length=0.062072526 units=km geometry=1ph-x4_acsrx4_acsr                
new line.C10_ln5531333-1         bus1=C10_m1126016.1          bus2=C10_l3120534.1          length=0.035538915 units=km geometry=1ph-4_acsrxx4_acsr                
new line.C10_ln6047581-1         bus1=C10_m1026330.2          bus2=C10_l2766726.2          length=0.030088055 units=km geometry=1ph-x4_wpalx4_wpal                
new line.C10_ln6349077-1         bus1=C10_p901912.2           bus2=C10_l3195365.2          length=0.037424079 units=km geometry=1ph-x2_acsrx2_acsr                
new line.C10_ln6350574-1         bus1=C10_m1108381            bus2=C10_l3254237            length=0.075954944 units=km geometry=3ph_h-4_acsr2_acsr2_acsr4_acsr          
new line.C10_ln6320343-1         bus1=C10_l2804262.1          bus2=C10_l2841639.1          length=0.074677313 units=km geometry=1ph-4_acsrxx4_acsr                
new line.C10_ln81048100-5        bus1=C10_n1230123.2          bus2=C10_l2708744.2          length=0.055803273 units=km linecode=1p_1/0_axnj_db                          
new line.C10_ln6348946-1         bus1=C10_m1069519.2          bus2=C10_p901927.2           length=0.008238711 units=km geometry=1ph-x2_acsrx2_acsr                
new line.C10_ln5744351-1         bus1=C10_l2897790.3          bus2=C10_l2935566.3          length=0.070433661 units=km geometry=1ph-xx2_acsr2_acsr                
new line.C10_ln5472342-1         bus1=C10_m1026931.1          bus2=C10_l3216337.1          length=0.056331403 units=km geometry=1ph-2_acsrxx2_acsr                
new line.C10_ln5621849-1         bus1=C10_p901931.3           bus2=C10_m1069548.3          length=0.004854897 units=km geometry=1ph-xx2_acsr2_acsr                
new line.C10_ln6379375-1         bus1=C10_m1010013.1          bus2=C10_l3120503.1          length=0.0548288   units=km geometry=1ph-2_acsrxx2_acsr                
new line.C10_ln6028890-1         bus1=C10_m1089145            bus2=C10_l3215385            length=0.035965867 units=km geometry=3ph_h-2_acsr2_acsr2_acsr2_acsr          
new line.C10_ln6380822-1         bus1=C10_m1026854            bus2=C10_m1026852            length=0.13122769  units=km geometry=3ph_h-2/0_acsr2/0_acsr2/0_acsr2_acsr    
new line.C10_ln5835131-1         bus1=C10_l2935549            bus2=C10_m1069420            length=0.096022455 units=km geometry=3ph_h-2/0_acsr2/0_acsr2/0_acsr2_acsr    
new line.C10_ln5803262-7         bus1=C10_l3157708.3          bus2=C10_n1137991.3          length=0.014131659 units=km geometry=1ph-xx4_acsr4_acsr                
new line.C10_ln81048089-1        bus1=C10_m1108413.1          bus2=C10_m1108460.1          length=0.14609518  units=km linecode=1p_1/0_axnj_db                          
new line.C10_ln6201699-1         bus1=C10_p827532.1           bus2=C10_m1047326.1          length=0.007292708 units=km geometry=1ph-2_acsrxx2_acsr                
new line.C10_ln5746548-1         bus1=C10_e182732             bus2=C10_m1026760            length=0.009180368 units=km geometry=3ph_h-4_acsr4_acsr4_acsr4_acsr          
new line.C10_ln5835174-1         bus1=C10_l3048205.3          bus2=C10_m1108361.3          length=0.19593419  units=km geometry=1ph-xx4_acsr4_wpal                
new line.C10_ln6505947-4         bus1=C10_m3036169.1          bus2=C10_l2673317.1          length=0.002598078 units=km geometry=1ph-4_acsrxx4_wpal                
new line.C10_ln5683833-1         bus1=C10_l3178981.2          bus2=C10_m1047368.2          length=0.21679755  units=km geometry=1ph-x4_acsrx4_acsr                
new line.C10_ln5561439-3         bus1=C10_m1069519            bus2=C10_n1136354            length=0.15125949  units=km geometry=3ph_h-397_acsr397_acsr397_acsr2/0_acsr  
new line.C10_ln6109190-1         bus1=C10_l2879794.1          bus2=C10_m1142811.1          length=0.033755992 units=km geometry=1ph-4_acsrxx4_acsr                
new line.C10_ln6258435-2         bus1=C10_m1047702.1          bus2=C10_n1137002.1          length=0.018939349 units=km geometry=1ph-2_acsrxx2_acsr                
new line.C10_ln5804819-1         bus1=C10_m1069565.2          bus2=C10_l2785536.2          length=0.1850108   units=km geometry=1ph-x4_acsrx4_acsr                
new line.C10_ln5593215-1         bus1=C10_l3104114.2          bus2=C10_m1009824.2          length=0.055545084 units=km geometry=1ph-x4_wpalx4_wpal                
new line.C10_ln5833717-1         bus1=C10_l2745848            bus2=C10_l2673308            length=0.057554467 units=km geometry=3ph_h-2/0_acsr2/0_acsr2/0_acsr2_acsr    
new line.C10_ln6199557-1         bus1=C10_l2673308            bus2=C10_l2991939            length=0.11260967  units=km geometry=3ph_h-2/0_acsr2/0_acsr2/0_acsr2_acsr    
new line.C10_ln5744332-1         bus1=C10_l2916606.3          bus2=C10_l2822864.3          length=0.061698468 units=km geometry=1ph-xx4_acsr4_acsr                
new line.C10_ln5558790-1         bus1=C10_m1142851            bus2=C10_196-31070           length=0.01385607  units=km geometry=3ph_h-397_acsr397_acsr397_acsr2/0_acsr  
new line.C10_ln6078692-1         bus1=C10_m1209822.3          bus2=C10_m1209823.3          length=0.056983029 units=km geometry=1ph-xx4_acsr4_acsr                
new line.C10_ln5956482-1         bus1=C10_m1069550.2          bus2=C10_m1069551.2          length=0.004148354 units=km geometry=1ph-x4_wpalx4_wpal                
new line.C10_ln5593225-1         bus1=C10_l2860483.2          bus2=C10_l3141397.2          length=0.076050673 units=km geometry=1ph-x2_acsrx2_acsr                
new line.C10_ln6900591-26        bus1=C10_l3649299.1          bus2=C10_m3772794.1          length=0.003878988 units=km geometry=1ph-2_acsrxx2_acsr                
new line.C10_ln5952393-1         bus1=C10_p895106.2           bus2=C10_l3048887.2          length=0.040161258 units=km geometry=1ph-x4_acsrx4_acsr                
new line.C10_ln6350531-1         bus1=C10_m1047824.2          bus2=C10_m1047834.2          length=0.41574814  units=km geometry=1ph-x4_acsrx4_acsr                
new line.C10_ln5965099-10        bus1=C10_m1069350            bus2=C10_n1144668            length=0.026748079 units=km geometry=3ph_h-2/0_acsr2/0_acsr2/0_acsr2_acsr    
new line.C10_ln6047568-1         bus1=C10_l2879072.2          bus2=C10_m1047441.2          length=0.2303486   units=km geometry=1ph-x4_wpalx4_acsr                
new line.C10_ln5926292-1         bus1=C10_m1108274.2          bus2=C10_m1108269.2          length=0.061288054 units=km geometry=1ph-x2_acsrx2_acsr                
new line.C10_ln6380806-1         bus1=C10_l3235244.1          bus2=C10_m1069398.1          length=0.062895843 units=km geometry=1ph-4_acsrxx4_acsr                
new line.C10_ln6341781-3         bus1=C10_n1147862.1          bus2=C10_l2685805.1          length=0.089366154 units=km geometry=1ph-2_acsrxx2_acsr                
new line.C10_ln8979367-1         bus1=C10_m1069247.1          bus2=C10_m1069248.1          length=0.12279504  units=km linecode=1p_1/0_axnj_db                          
new line.C10_ln6018340-1         bus1=C10_l2786273.2          bus2=C10_m1108278.2          length=0.10799408  units=km geometry=1ph-x4_acsrx4_acsr                
new line.C10_ln6380847-1         bus1=C10_l3254238            bus2=C10_m1047303            length=0.099313729 units=km geometry=3ph_h-4_acsr4_acsr4_acsr4_acsr          
new line.C10_ln8961797-1         bus1=C10_m1047633.3          bus2=C10_l2897554.3          length=0.17983472  units=km linecode=1p_1/0_axnj_db                          
new line.C10_ln6077797-1         bus1=C10_m1069627.2          bus2=C10_l2897791.2          length=0.13855367  units=km geometry=1ph-x4_acsrx4_acsr                
new line.C10_ln6077773-1         bus1=C10_m1089097.2          bus2=C10_m1108270.2          length=0.083122982 units=km geometry=1ph-x4_acsrx4_wpal                
new line.C10_ln5837496-4         bus1=C10_n1142101.1          bus2=C10_l2936214.1          length=0.036947217 units=km geometry=1ph-2_acsrxx2_acsr                
new line.C10_ln5623392-1         bus1=C10_l3066810.3          bus2=C10_l2897769.3          length=0.12963818  units=km geometry=1ph-xx4_acsr4_acsr                
new line.C10_ln5624380-1         bus1=C10_m1209758.2          bus2=C10_m1209753.2          length=0.12109104  units=km geometry=1ph-x2_acsrx2_acsr                
new line.C10_ln6422809-2         bus1=C10_m1047528            bus2=C10_l2858166            length=0.004833257 units=km geometry=3ph_h-2/0_acsr2/0_acsr2/0_acsr2_acsr    
new line.C10_ln5799561-1         bus1=C10_m1142843            bus2=C10_l3081380            length=0.110589    units=km geometry=3ph_h-397_acsr397_acsr397_acsr2/0_acsr  
new line.C10_ln6229818-1         bus1=C10_l2804272.2          bus2=C10_l2841641.2          length=0.079462886 units=km geometry=1ph-x2_acsrx2_acsr                
new line.C10_ln5593230-1         bus1=C10_m1069393.2          bus2=C10_m1069408.2          length=0.069802024 units=km geometry=1ph-x4_acsrx4_acsr                
new line.C10_ln5563901-3         bus1=C10_n1142104            bus2=C10_m1108500            length=0.045482405 units=km geometry=3ph_h-397_acsr397_acsr397_acsr2/0_acsr  
new line.C10_ln6320339-1         bus1=C10_l3216348.1          bus2=C10_l2841627.1          length=0.18831853  units=km geometry=1ph-4_wpalxx4_wpal                
new line.C10_ln5986927-1         bus1=C10_m1026925.1          bus2=C10_l2916599.1          length=0.015576555 units=km geometry=1ph-4_acsrxx4_acsr                
new line.C10_ln6047567-1         bus1=C10_m1047447.2          bus2=C10_l2954349.2          length=0.053454722 units=km geometry=1ph-x4_wpalx4_wpal                
...
